/PREP7
MP,EX,1,210000
MP,PRXY,1,0.3
TB,GURSON,1
TBDATA,1,1.5,1.0,2.25

MP,EX,2,230000
MP,PRXY,2,0.28
TB,GURSON,2
TBDATA,1,1.8,1.0,3.24

K,1,0.07576166942981706,0.1976454505096254,0
K,2,0.08411762369913117,0.20172519143723314,0
K,3,0.08779533805300511,0.18592960251432417,0
K,4,0.08741349086719051,0.18547067221108374,0
K,5,0.07717090178058869,0.18266516449342637,0
A,1,2,3,4,5
*GET,LASTA,AREA,0,NUM,MAX
ASEL,S,AREA,,LASTA
AATT,1,1,1
ALLSEL,ALL
K,6,0.36544340483949184,0.012345126190926215,0
K,7,0.376128356579261,0.010164968861512436,0
K,8,0.37829439877095994,0.0,0
K,9,0.35526146232805617,0.0,0
A,6,7,8,9
*GET,LASTA,AREA,0,NUM,MAX
ASEL,S,AREA,,LASTA
AATT,1,1,1
ALLSEL,ALL
K,10,0.2709205368895299,0.360628027525945,0
K,11,0.2575903499619706,0.37384028029605537,0
K,12,0.2628215478526931,0.3824260029968391,0
K,13,0.26711201565628695,0.38561343517353547,0
K,14,0.26819837094913246,0.3857283249593604,0
K,15,0.27496880421323056,0.3744152821441582,0
K,16,0.2728183648358412,0.3616836744346137,0
A,10,11,12,13,14,15,16
*GET,LASTA,AREA,0,NUM,MAX
ASEL,S,AREA,,LASTA
AATT,1,1,1
ALLSEL,ALL
K,17,0.0715105134481251,0.4445372953244183,0
K,18,0.07727245338391506,0.4344467806753772,0
K,19,0.06446323576559916,0.4191689180942973,0
K,20,0.06850571141937443,0.4428193592795952,0
K,21,0.0712082273614999,0.44451920439382836,0
A,17,18,19,20,21
*GET,LASTA,AREA,0,NUM,MAX
ASEL,S,AREA,,LASTA
AATT,1,1,1
ALLSEL,ALL
K,22,0.19448054421703626,0.403851534738815,0
K,23,0.1972381905955858,0.40789628464349237,0
K,24,0.20218191110069014,0.410853866977527,0
K,25,0.2080116536601488,0.4086109971354011,0
K,26,0.20640491066613945,0.4040978640189026,0
A,22,23,24,25,26
*GET,LASTA,AREA,0,NUM,MAX
ASEL,S,AREA,,LASTA
AATT,1,1,1
ALLSEL,ALL
K,27,0.38005193570256407,0.32780567546692824,0
K,28,0.38016770023100815,0.31572620322829886,0
K,29,0.3731576594734337,0.31617229009289277,0
K,30,0.3703946202598868,0.3271673410258043,0
A,27,28,29,30
*GET,LASTA,AREA,0,NUM,MAX
ASEL,S,AREA,,LASTA
AATT,1,1,1
ALLSEL,ALL
K,31,0.20384681693060305,0.0041893307725460625,0
K,32,0.2164656055220815,0.0064323237882003064,0
K,33,0.22439423897870156,0.0,0
K,34,0.20106036363928234,0.0,0
A,31,32,33,34
*GET,LASTA,AREA,0,NUM,MAX
ASEL,S,AREA,,LASTA
AATT,1,1,1
ALLSEL,ALL
K,35,0.08411762369913117,0.20172519143723314,0
K,36,0.07576166942981706,0.1976454505096254,0
K,37,0.07078634595255882,0.19862777778622076,0
K,38,0.06877138070399892,0.21636063485405646,0
K,39,0.07729987149356793,0.2147434169997058,0
K,40,0.08548056437595235,0.20334858783373536,0
A,35,36,37,38,39,40
*GET,LASTA,AREA,0,NUM,MAX
ASEL,S,AREA,,LASTA
AATT,1,1,1
ALLSEL,ALL
K,41,0.3914789243330038,0.32276870969250526,0
K,42,0.40083427437135705,0.32835564867565,0
K,43,0.40189072395282577,0.3221013013484035,0
K,44,0.3917597531686178,0.32173757742256626,0
A,41,42,43,44
*GET,LASTA,AREA,0,NUM,MAX
ASEL,S,AREA,,LASTA
AATT,1,1,1
ALLSEL,ALL
K,45,0.031053306365433637,0.22351135654478563,0
K,46,0.026476251660416388,0.22776529574384816,0
K,47,0.02468019228656463,0.2443066294127677,0
K,48,0.02916976067906481,0.2457530225103459,0
K,49,0.04440870139660712,0.24426637342602947,0
K,50,0.0405522518757981,0.22582006702606885,0
A,45,46,47,48,49,50
*GET,LASTA,AREA,0,NUM,MAX
ASEL,S,AREA,,LASTA
AATT,1,1,1
ALLSEL,ALL
K,51,0.09948076688664369,0.1466642483656496,0
K,52,0.11828761884199353,0.15470874071403448,0
K,53,0.1233384108410221,0.137322226351788,0
K,54,0.11511589795395283,0.12820619704449615,0
A,51,52,53,54
*GET,LASTA,AREA,0,NUM,MAX
ASEL,S,AREA,,LASTA
AATT,1,1,1
ALLSEL,ALL
K,55,0.32007240132370224,0.4364119672094429,0
K,56,0.3206647783276934,0.41845833236092883,0
K,57,0.31721684519224,0.42135516857464145,0
K,58,0.3078077800936885,0.4384317111130379,0
K,59,0.31140694507008065,0.44170167331752785,0
A,55,56,57,58,59
*GET,LASTA,AREA,0,NUM,MAX
ASEL,S,AREA,,LASTA
AATT,1,1,1
ALLSEL,ALL
K,60,0.3941200625639648,0.2271248551183408,0
K,61,0.394545902137066,0.22336967155380272,0
K,62,0.37355273043794507,0.22036192779385935,0
K,63,0.3702331455267547,0.22645520481516182,0
K,64,0.3843149519674959,0.2332657627772112,0
K,65,0.3880307912259005,0.23349056413278452,0
A,60,61,62,63,64,65
*GET,LASTA,AREA,0,NUM,MAX
ASEL,S,AREA,,LASTA
AATT,1,1,1
ALLSEL,ALL
K,66,0.303372856426925,0.07951817770685468,0
K,67,0.3100293391987397,0.08549272147300667,0
K,68,0.3103895883612885,0.08546433649348285,0
K,69,0.3145207663434689,0.08321863859468456,0
K,70,0.31491010304463357,0.08266184579326384,0
K,71,0.31562843496305254,0.07978953488086958,0
K,72,0.3155743687026906,0.07962969850273738,0
K,73,0.30899674534540383,0.07478219914535396,0
A,66,67,68,69,70,71,72,73
*GET,LASTA,AREA,0,NUM,MAX
ASEL,S,AREA,,LASTA
AATT,1,1,1
ALLSEL,ALL
K,74,0.19392462393575582,0.2553921133154806,0
K,75,0.19332465023050593,0.23796042368517012,0
K,76,0.18916121867680577,0.23971171465056046,0
K,77,0.18389161673265808,0.2500616612820119,0
K,78,0.18648144394374158,0.2550083203566715,0
A,74,75,76,77,78
*GET,LASTA,AREA,0,NUM,MAX
ASEL,S,AREA,,LASTA
AATT,1,1,1
ALLSEL,ALL
K,79,0.3345666761152391,0.22502433029801833,0
K,80,0.33491806152366926,0.23067328027342401,0
K,81,0.3427614397615471,0.24442292023343848,0
K,82,0.347710985600279,0.23434814867796094,0
K,83,0.3393065100728117,0.21871920929117178,0
A,79,80,81,82,83
*GET,LASTA,AREA,0,NUM,MAX
ASEL,S,AREA,,LASTA
AATT,1,1,1
ALLSEL,ALL
K,84,0.4729261554819114,0.26391548883710386,0
K,85,0.46071004869969423,0.26557519035154853,0
K,86,0.4598948319316335,0.27373887674384717,0
K,87,0.4688038061994928,0.2758715033348393,0
A,84,85,86,87
*GET,LASTA,AREA,0,NUM,MAX
ASEL,S,AREA,,LASTA
AATT,1,1,1
ALLSEL,ALL
K,88,0.4779154155876361,0.08841117226322184,0
K,89,0.48376382796423234,0.09433584048930387,0
K,90,0.4924809574551592,0.09463741347674738,0
K,91,0.48341368800820894,0.0784587551611809,0
K,92,0.4791230968943445,0.08044909550849816,0
A,88,89,90,91,92
*GET,LASTA,AREA,0,NUM,MAX
ASEL,S,AREA,,LASTA
AATT,1,1,1
ALLSEL,ALL
K,93,0.34688583211135354,0.3426422768066914,0
K,94,0.34268976664908185,0.3420548000525083,0
K,95,0.34228264294088767,0.3424208232703184,0
K,96,0.33508063426814133,0.3519054425580191,0
K,97,0.33893793964327223,0.35884202970760903,0
K,98,0.3545758570308643,0.36418670101745637,0
K,99,0.3562052561462731,0.36330505560090753,0
A,93,94,95,96,97,98,99
*GET,LASTA,AREA,0,NUM,MAX
ASEL,S,AREA,,LASTA
AATT,1,1,1
ALLSEL,ALL
K,100,0.044718931450904234,0.475128197707598,0
K,101,0.03739885728143557,0.4870395376740257,0
K,102,0.05583661935217727,0.4855365851751473,0
A,100,101,102
*GET,LASTA,AREA,0,NUM,MAX
ASEL,S,AREA,,LASTA
AATT,1,1,1
ALLSEL,ALL
K,103,0.05758557710652356,0.20742816318540097,0
K,104,0.04923383450485097,0.2157664050223281,0
K,105,0.05286423156483393,0.2181350953979018,0
K,106,0.06552518627007631,0.21591096020918024,0
A,103,104,105,106
*GET,LASTA,AREA,0,NUM,MAX
ASEL,S,AREA,,LASTA
AATT,1,1,1
ALLSEL,ALL
K,107,0.4860567992963328,0.2498480737070336,0
K,108,0.47532027455985587,0.25283420175010546,0
K,109,0.47361911833769804,0.26372056070136457,0
K,110,0.4778797466458898,0.26716245572782527,0
K,111,0.4903829839806349,0.2513751279112438,0
A,107,108,109,110,111
*GET,LASTA,AREA,0,NUM,MAX
ASEL,S,AREA,,LASTA
AATT,1,1,1
ALLSEL,ALL
K,112,0.40054608562616795,0.35307856701472756,0
K,113,0.40342442941728474,0.34944984850257876,0
K,114,0.40238416363165236,0.34214514019468845,0
K,115,0.39490402291146753,0.339129652896246,0
K,116,0.39132298223787776,0.3443153059571822,0
A,112,113,114,115,116
*GET,LASTA,AREA,0,NUM,MAX
ASEL,S,AREA,,LASTA
AATT,1,1,1
ALLSEL,ALL
K,117,0.421874386031462,0.2669853358143338,0
K,118,0.42720000319608287,0.273795022683493,0
K,119,0.4355402449158867,0.2774545251394814,0
K,120,0.4402827645896014,0.275399048800294,0
K,121,0.4440981222934441,0.26270952153520755,0
K,122,0.4384469835360233,0.25722165767750416,0
K,123,0.4234061794072274,0.2578035151013701,0
A,117,118,119,120,121,122,123
*GET,LASTA,AREA,0,NUM,MAX
ASEL,S,AREA,,LASTA
AATT,1,1,1
ALLSEL,ALL
K,124,0.1499054692545199,0.25947701460019573,0
K,125,0.15018252335467808,0.25910255059028275,0
K,126,0.14949332966764134,0.2455073298397005,0
K,127,0.14437041340848814,0.24554229641676426,0
K,128,0.14088335634161023,0.2608581896109455,0
A,124,125,126,127,128
*GET,LASTA,AREA,0,NUM,MAX
ASEL,S,AREA,,LASTA
AATT,1,1,1
ALLSEL,ALL
K,129,0.4020053481369478,0.0,0
K,130,0.37829439877095994,0.0,0
K,131,0.376128356579261,0.010164968861512436,0
K,132,0.3784560893693736,0.01362673457072138,0
K,133,0.38844589239779664,0.013274072679512113,0
K,134,0.4019873952354793,0.001170229050297289,0
A,129,130,131,132,133,134
*GET,LASTA,AREA,0,NUM,MAX
ASEL,S,AREA,,LASTA
AATT,1,1,1
ALLSEL,ALL
K,135,0.04526880556247654,0.1840068013510639,0
K,136,0.03664113425835508,0.18194291204978413,0
K,137,0.036775122618048224,0.1958685848927942,0
K,138,0.03699850810294768,0.19604372566285427,0
K,139,0.045338824776244464,0.18430098559287836,0
A,135,136,137,138,139
*GET,LASTA,AREA,0,NUM,MAX
ASEL,S,AREA,,LASTA
AATT,1,1,1
ALLSEL,ALL
K,140,0.49122735267724765,0.17987208196885673,0
K,141,0.48881587534980275,0.1822453779061487,0
K,142,0.4895939266842965,0.18952769809152797,0
K,143,0.5,0.19344605710243273,0
K,144,0.5,0.17964866149625003,0
A,140,141,142,143,144
*GET,LASTA,AREA,0,NUM,MAX
ASEL,S,AREA,,LASTA
AATT,1,1,1
ALLSEL,ALL
K,145,0.4833695022797145,0.2369397622869423,0
K,146,0.47756292865323363,0.23458768739998445,0
K,147,0.47435809734452433,0.23521685126844924,0
K,148,0.46804692752633825,0.24474630685396984,0
K,149,0.47532027455985587,0.25283420175010546,0
K,150,0.4860567992963328,0.2498480737070336,0
K,151,0.4835142319088573,0.2371293256770296,0
A,145,146,147,148,149,150,151
*GET,LASTA,AREA,0,NUM,MAX
ASEL,S,AREA,,LASTA
AATT,1,1,1
ALLSEL,ALL
K,152,0.31427063865463545,0.18622988141418295,0
K,153,0.30310387571171604,0.18567076302790902,0
K,154,0.29923381045116304,0.1909182591410908,0
K,155,0.30020189846457923,0.1934092354762395,0
K,156,0.3136122122241802,0.19882797446732692,0
A,152,153,154,155,156
*GET,LASTA,AREA,0,NUM,MAX
ASEL,S,AREA,,LASTA
AATT,1,1,1
ALLSEL,ALL
K,157,0.4225003994259175,0.2565304122488504,0
K,158,0.4234061794072274,0.2578035151013701,0
K,159,0.4384469835360233,0.25722165767750416,0
K,160,0.4397563829024705,0.24755514006215704,0
K,161,0.4255544284359065,0.2404210882472339,0
K,162,0.4202451200883679,0.24547912579300846,0
A,157,158,159,160,161,162
*GET,LASTA,AREA,0,NUM,MAX
ASEL,S,AREA,,LASTA
AATT,1,1,1
ALLSEL,ALL
K,163,0.2935530400889851,0.4514387134463678,0
K,164,0.28529565557346515,0.45253098670801556,0
K,165,0.28579422251013636,0.4585306937702832,0
K,166,0.2898207958280027,0.46654840077769094,0
K,167,0.2981187035090597,0.46555047034628055,0
K,168,0.3019755840986478,0.4542308749317041,0
A,163,164,165,166,167,168
*GET,LASTA,AREA,0,NUM,MAX
ASEL,S,AREA,,LASTA
AATT,1,1,1
ALLSEL,ALL
K,169,0.4011245592383361,0.2502112428811221,0
K,170,0.39860288139615546,0.24711091329295445,0
K,171,0.3952858165389505,0.2464578744878987,0
K,172,0.38227876873338423,0.2512262806058452,0
K,173,0.38138890059060837,0.2606727295974956,0
K,174,0.3902564620566711,0.264140039875124,0
K,175,0.4017098397933902,0.25622538387346006,0
A,169,170,171,172,173,174,175
*GET,LASTA,AREA,0,NUM,MAX
ASEL,S,AREA,,LASTA
AATT,1,1,1
ALLSEL,ALL
K,176,0.32383936744012265,0.18346888719833349,0
K,177,0.323476306358046,0.184465316261276,0
K,178,0.33062565687294493,0.1901466153590333,0
K,179,0.332234189738459,0.18984557476771707,0
K,180,0.3416009839240876,0.18525750046831416,0
K,181,0.3416303640818716,0.18314164276117986,0
K,182,0.3322806057755892,0.17428603380612123,0
A,176,177,178,179,180,181,182
*GET,LASTA,AREA,0,NUM,MAX
ASEL,S,AREA,,LASTA
AATT,1,1,1
ALLSEL,ALL
K,183,0.16187628551822497,0.015086091157165612,0
K,184,0.17164965691032644,0.032598415251329296,0
K,185,0.17526746820284334,0.032323967324479556,0
K,186,0.17589350724303754,0.03060542681874317,0
K,187,0.16735791800970432,0.012361013856307182,0
A,183,184,185,186,187
*GET,LASTA,AREA,0,NUM,MAX
ASEL,S,AREA,,LASTA
AATT,1,1,1
ALLSEL,ALL
K,188,0.34479074752919897,0.41625061714523526,0
K,189,0.3503186846236771,0.41759396488779194,0
K,190,0.3548417467438146,0.41562501277347025,0
K,191,0.36005966399553935,0.40539843677769644,0
K,192,0.35542327298994414,0.39805986808568267,0
K,193,0.34953154646323514,0.39945943894467106,0
K,194,0.34419886233704317,0.41519598497662774,0
A,188,189,190,191,192,193,194
*GET,LASTA,AREA,0,NUM,MAX
ASEL,S,AREA,,LASTA
AATT,1,1,1
ALLSEL,ALL
K,195,0.11755828698426338,0.011571949850956702,0
K,196,0.13066744985989404,0.013040577263114339,0
K,197,0.13830691794296943,0.0011133428652118083,0
K,198,0.13831773149657683,0.0,0
K,199,0.1126968147460967,0.0,0
A,195,196,197,198,199
*GET,LASTA,AREA,0,NUM,MAX
ASEL,S,AREA,,LASTA
AATT,1,1,1
ALLSEL,ALL
K,200,0.3181824770891612,0.29547524855835117,0
K,201,0.33222068729266757,0.29218299812704157,0
K,202,0.332210773459551,0.28985086982937097,0
K,203,0.3201419608759912,0.2803787182752565,0
K,204,0.30987316534249804,0.29199880646105286,0
K,205,0.3116452782450346,0.2942687037802489,0
A,200,201,202,203,204,205
*GET,LASTA,AREA,0,NUM,MAX
ASEL,S,AREA,,LASTA
AATT,1,1,1
ALLSEL,ALL
K,206,0.33044276125192196,0.01684978413368606,0
K,207,0.32317565353536803,0.020622744125201344,0
K,208,0.3234577633962553,0.026750480269070613,0
K,209,0.3319091131671514,0.03036767359628504,0
K,210,0.3355979640918897,0.026705770721982477,0
A,206,207,208,209,210
*GET,LASTA,AREA,0,NUM,MAX
ASEL,S,AREA,,LASTA
AATT,1,1,1
ALLSEL,ALL
K,211,0.36717470439500016,0.037756165733077454,0
K,212,0.3640415959410938,0.04011985868631283,0
K,213,0.36742910443049637,0.04688513875050793,0
K,214,0.3780338906865145,0.04771126393243923,0
K,215,0.3790189246794998,0.04227076637611886,0
A,211,212,213,214,215
*GET,LASTA,AREA,0,NUM,MAX
ASEL,S,AREA,,LASTA
AATT,1,1,1
ALLSEL,ALL
K,216,0.04901767798696506,0.36087162907906534,0
K,217,0.0494164643798407,0.35808619681821685,0
K,218,0.04365908940516121,0.3561580945572655,0
K,219,0.03200692479189623,0.3583083500584136,0
K,220,0.034549691890610496,0.36664385924022286,0
K,221,0.03586734864393892,0.36788907401852966,0
K,222,0.03920054119040377,0.3678520890473993,0
A,216,217,218,219,220,221,222
*GET,LASTA,AREA,0,NUM,MAX
ASEL,S,AREA,,LASTA
AATT,1,1,1
ALLSEL,ALL
K,223,0.09329289034924775,0.03753528188773813,0
K,224,0.0855260419858673,0.04299947968352424,0
K,225,0.08507726586070297,0.04746448379957536,0
K,226,0.08619156045793631,0.04970432073925932,0
K,227,0.09566932103180818,0.04541254272806149,0
A,223,224,225,226,227
*GET,LASTA,AREA,0,NUM,MAX
ASEL,S,AREA,,LASTA
AATT,1,1,1
ALLSEL,ALL
K,228,0.4127174504482244,0.4458885909667015,0
K,229,0.41325106534830686,0.4620818087381515,0
K,230,0.4246475434972434,0.45768375514471377,0
K,231,0.42711573984988427,0.4534053237510833,0
K,232,0.42293845738962416,0.4471678833426661,0
A,228,229,230,231,232
*GET,LASTA,AREA,0,NUM,MAX
ASEL,S,AREA,,LASTA
AATT,1,1,1
ALLSEL,ALL
K,233,0.43931740378638656,0.34119316777838654,0
K,234,0.44075962392165324,0.33671468236390323,0
K,235,0.42137215763737423,0.32976929838841373,0
K,236,0.41926650021574613,0.33093985692201805,0
K,237,0.4158351375551088,0.3348113947938813,0
K,238,0.4174720220238181,0.3456659778747554,0
K,239,0.4259753128986669,0.34847840238426553,0
K,240,0.4335062532626169,0.34646345429452335,0
K,241,0.4377047787349499,0.34351148576741203,0
A,233,234,235,236,237,238,239,240,241
*GET,LASTA,AREA,0,NUM,MAX
ASEL,S,AREA,,LASTA
AATT,1,1,1
ALLSEL,ALL
K,242,0.11732158567048703,0.3105023293019776,0
K,243,0.1306171290115512,0.3210056410954859,0
K,244,0.13423938303278177,0.3220129270778203,0
K,245,0.1388518861143065,0.31398778647475994,0
K,246,0.1337574522346368,0.30401739848363163,0
A,242,243,244,245,246
*GET,LASTA,AREA,0,NUM,MAX
ASEL,S,AREA,,LASTA
AATT,1,1,1
ALLSEL,ALL
K,247,0.3504427140024538,0.1642527481358495,0
K,248,0.35720639210389143,0.16573553792090248,0
K,249,0.361381727436047,0.16123339507526938,0
K,250,0.36108414414023116,0.15144124560944472,0
K,251,0.3605638243278105,0.14983180029206425,0
K,252,0.3565363492212777,0.14478239144324423,0
K,253,0.3411404495445876,0.14634271859425982,0
K,254,0.340779160512892,0.1465960149261861,0
K,255,0.33929660377851656,0.15058512323508838,0
A,247,248,249,250,251,252,253,254,255
*GET,LASTA,AREA,0,NUM,MAX
ASEL,S,AREA,,LASTA
AATT,1,1,1
ALLSEL,ALL
K,256,0.12203990051524272,0.3917413420771515,0
K,257,0.1110823958603225,0.3925474535771426,0
K,258,0.1055058173185571,0.39733328755545966,0
K,259,0.12100357043731447,0.4031267675563146,0
K,260,0.12142382572483443,0.4020326724484829,0
A,256,257,258,259,260
*GET,LASTA,AREA,0,NUM,MAX
ASEL,S,AREA,,LASTA
AATT,1,1,1
ALLSEL,ALL
K,261,0.4360410348396559,0.4868184601172788,0
K,262,0.43360096488223715,0.4787553557142406,0
K,263,0.43014470796968846,0.47678095910866625,0
K,264,0.41597019262936846,0.477512220580026,0
K,265,0.4199034889761478,0.5,0
K,266,0.43158307635849397,0.5,0
A,261,262,263,264,265,266
*GET,LASTA,AREA,0,NUM,MAX
ASEL,S,AREA,,LASTA
AATT,1,1,1
ALLSEL,ALL
K,267,0.2714583311345101,0.20182535898364815,0
K,268,0.26093053026769963,0.20924924836404357,0
K,269,0.26250084235183024,0.21838139300452591,0
K,270,0.26395311606073224,0.21891414170045773,0
K,271,0.27018440426597834,0.2148587878873921,0
K,272,0.2724038150678665,0.21145104985788685,0
K,273,0.2720387411393486,0.20345272887504776,0
A,267,268,269,270,271,272,273
*GET,LASTA,AREA,0,NUM,MAX
ASEL,S,AREA,,LASTA
AATT,1,1,1
ALLSEL,ALL
K,274,0.08547879432649719,0.2929254608849344,0
K,275,0.09261022933526245,0.2822302388890084,0
K,276,0.08777476841725432,0.2790108243964691,0
K,277,0.07935500047233462,0.2846504411245801,0
K,278,0.0764552495860857,0.29375557905378735,0
K,279,0.07856980914634396,0.2961008528440487,0
A,274,275,276,277,278,279
*GET,LASTA,AREA,0,NUM,MAX
ASEL,S,AREA,,LASTA
AATT,1,1,1
ALLSEL,ALL
K,280,0.463020077885587,0.19639334644499643,0
K,281,0.45993990377693905,0.19317676668625972,0
K,282,0.45695800097647055,0.1927315871234489,0
K,283,0.4445913281111542,0.19826406919875975,0
K,284,0.4423092620127934,0.20598973701223605,0
K,285,0.45413508917439976,0.20766215714101133,0
A,280,281,282,283,284,285
*GET,LASTA,AREA,0,NUM,MAX
ASEL,S,AREA,,LASTA
AATT,1,1,1
ALLSEL,ALL
K,286,0.08431000808263779,0.030853275126479153,0
K,287,0.08823068275300405,0.02460539970102339,0
K,288,0.06938348301994636,0.021517440428858926,0
K,289,0.0657820212430248,0.03063398333461023,0
K,290,0.07572448072245253,0.03310668936490146,0
A,286,287,288,289,290
*GET,LASTA,AREA,0,NUM,MAX
ASEL,S,AREA,,LASTA
AATT,1,1,1
ALLSEL,ALL
K,291,0.24473380392397748,0.3137735382657908,0
K,292,0.25732995266188546,0.30319992032737303,0
K,293,0.25777267684724703,0.30203719817656904,0
K,294,0.2546219995943897,0.2960658596036992,0
K,295,0.24952050065189393,0.2959236183703837,0
K,296,0.2460244811429947,0.29730804322470605,0
K,297,0.2349922376954243,0.3055120117280525,0
K,298,0.23524852528991286,0.30703740267470164,0
K,299,0.24165138008110884,0.3130955376594676,0
A,291,292,293,294,295,296,297,298,299
*GET,LASTA,AREA,0,NUM,MAX
ASEL,S,AREA,,LASTA
AATT,1,1,1
ALLSEL,ALL
K,300,0.19060791461446708,0.06655555062761347,0
K,301,0.19101323754981317,0.06507653704013137,0
K,302,0.18057482368619476,0.05807217098031582,0
K,303,0.16966531006933078,0.06707831420620859,0
K,304,0.17249771998811406,0.07109337076119322,0
K,305,0.177159825284007,0.0724287150926343,0
A,300,301,302,303,304,305
*GET,LASTA,AREA,0,NUM,MAX
ASEL,S,AREA,,LASTA
AATT,1,1,1
ALLSEL,ALL
K,306,0.23393202209783376,0.3521051237658825,0
K,307,0.2468685910905687,0.3570160189071945,0
K,308,0.2527664087383615,0.34455104029096795,0
K,309,0.23963973561711166,0.33927997534324533,0
A,306,307,308,309
*GET,LASTA,AREA,0,NUM,MAX
ASEL,S,AREA,,LASTA
AATT,1,1,1
ALLSEL,ALL
K,310,0.28706660006170953,0.13421723433145563,0
K,311,0.3001713553758672,0.13223065789752755,0
K,312,0.2933622242944206,0.11752320618112652,0
K,313,0.28071533870191157,0.12004746838489737,0
K,314,0.28047210268755596,0.12164208629884198,0
A,310,311,312,313,314
*GET,LASTA,AREA,0,NUM,MAX
ASEL,S,AREA,,LASTA
AATT,1,1,1
ALLSEL,ALL
K,315,0.287452850774612,0.3774228316642704,0
K,316,0.28946952323760816,0.3861648293661713,0
K,317,0.3037960348961476,0.3762834346441048,0
K,318,0.2999621060903295,0.3676610028955099,0
K,319,0.2887745831456335,0.3746105822489908,0
A,315,316,317,318,319
*GET,LASTA,AREA,0,NUM,MAX
ASEL,S,AREA,,LASTA
AATT,1,1,1
ALLSEL,ALL
K,320,0.23440963261552877,0.3869547273254126,0
K,321,0.2235196256479129,0.3841917228722275,0
K,322,0.2177767686373873,0.3911267791776474,0
K,323,0.21705414265282422,0.3989549035984405,0
K,324,0.22620268066180038,0.399948226080493,0
K,325,0.23237389349405557,0.39483650179347746,0
A,320,321,322,323,324,325
*GET,LASTA,AREA,0,NUM,MAX
ASEL,S,AREA,,LASTA
AATT,1,1,1
ALLSEL,ALL
K,326,0.2848063656567507,0.28638240165678985,0
K,327,0.2921572186142894,0.284799700736893,0
K,328,0.2909700527635203,0.2704633280062152,0
K,329,0.2859048131120942,0.2699388719408138,0
K,330,0.2792505780007664,0.27109486626201423,0
K,331,0.2751014424120717,0.27443633323276984,0
A,326,327,328,329,330,331
*GET,LASTA,AREA,0,NUM,MAX
ASEL,S,AREA,,LASTA
AATT,1,1,1
ALLSEL,ALL
K,332,0.22302000183539042,0.08559281238270589,0
K,333,0.22492612154975206,0.08461487833192713,0
K,334,0.2283967998146301,0.0693320411439404,0
K,335,0.2271343361159533,0.06909732760065519,0
K,336,0.21565158056413208,0.07152422738845175,0
A,332,333,334,335,336
*GET,LASTA,AREA,0,NUM,MAX
ASEL,S,AREA,,LASTA
AATT,1,1,1
ALLSEL,ALL
K,337,0.32116475263015787,0.4778702720036819,0
K,338,0.32233989353826403,0.47775996334464804,0
K,339,0.3265117495928546,0.4586893769846398,0
K,340,0.3256073364782172,0.45727941306475367,0
K,341,0.3108161054863676,0.46834844957666705,0
K,342,0.31288830346484936,0.473710003926362,0
A,337,338,339,340,341,342
*GET,LASTA,AREA,0,NUM,MAX
ASEL,S,AREA,,LASTA
AATT,1,1,1
ALLSEL,ALL
K,343,0.28488841083742217,0.1391998181211537,0
K,344,0.2830774492394131,0.15441986589833873,0
K,345,0.2880527759468408,0.15671750145098143,0
K,346,0.2925106520417461,0.15629611445104627,0
K,347,0.29920897015749953,0.1457351506095083,0
A,343,344,345,346,347
*GET,LASTA,AREA,0,NUM,MAX
ASEL,S,AREA,,LASTA
AATT,1,1,1
ALLSEL,ALL
K,348,0.2337286538063984,0.16017764676220983,0
K,349,0.23101428688945386,0.15679179805209384,0
K,350,0.22936938931646636,0.15576321369611634,0
K,351,0.2229842066828527,0.15585044550159438,0
K,352,0.22444331288605007,0.16753055652628523,0
K,353,0.23573007642320384,0.18476892183651522,0
K,354,0.23813116229662543,0.18508845097015167,0
K,355,0.23934013521178188,0.18381364017636573,0
A,348,349,350,351,352,353,354,355
*GET,LASTA,AREA,0,NUM,MAX
ASEL,S,AREA,,LASTA
AATT,1,1,1
ALLSEL,ALL
K,356,0.42388471631780167,0.10596893336317098,0
K,357,0.4303196453082198,0.10605441037756184,0
K,358,0.4293023717281737,0.10034701747435562,0
K,359,0.4220002149348296,0.10209738772991453,0
A,356,357,358,359
*GET,LASTA,AREA,0,NUM,MAX
ASEL,S,AREA,,LASTA
AATT,1,1,1
ALLSEL,ALL
K,360,0.0941656762676126,0.26465097972302537,0
K,361,0.11138525292603763,0.26325421303050933,0
K,362,0.11103062897325842,0.25434418049080204,0
K,363,0.10390993843628983,0.24550046281441648,0
K,364,0.10184293697873503,0.24637721192238146,0
K,365,0.08826514447006895,0.2625148305307214,0
A,360,361,362,363,364,365
*GET,LASTA,AREA,0,NUM,MAX
ASEL,S,AREA,,LASTA
AATT,1,1,1
ALLSEL,ALL
K,366,0.2893603511701124,0.43893863396400074,0
K,367,0.29956508492132966,0.4283861784352213,0
K,368,0.2977745583474092,0.425451345732719,0
K,369,0.2861442810402152,0.4299216973436316,0
K,370,0.28442642181154215,0.43212553418226446,0
K,371,0.284378268041601,0.4407327322657689,0
A,366,367,368,369,370,371
*GET,LASTA,AREA,0,NUM,MAX
ASEL,S,AREA,,LASTA
AATT,1,1,1
ALLSEL,ALL
K,372,0.18527396802640736,0.47602656663669257,0
K,373,0.18768743539070187,0.47778197618947876,0
K,374,0.2013453390377877,0.47192670419898086,0
K,375,0.18635254886847344,0.46360641356493554,0
K,376,0.1845352158044483,0.4651519370014565,0
A,372,373,374,375,376
*GET,LASTA,AREA,0,NUM,MAX
ASEL,S,AREA,,LASTA
AATT,1,1,1
ALLSEL,ALL
K,377,0.11284322764440022,0.1251996659924531,0
K,378,0.09876581447131606,0.12103226032669505,0
K,379,0.08718497385607828,0.14297460570970516,0
K,380,0.08923625638201366,0.14662185340457817,0
K,381,0.09171974285496377,0.14756602442738553,0
K,382,0.09634449182867594,0.14817323928963222,0
K,383,0.0968328413265906,0.1480208956694713,0
K,384,0.09948076688664369,0.1466642483656496,0
K,385,0.11511589795395283,0.12820619704449615,0
K,386,0.1150624041078035,0.12664973369757496,0
A,377,378,379,380,381,382,383,384,385,386
*GET,LASTA,AREA,0,NUM,MAX
ASEL,S,AREA,,LASTA
AATT,1,1,1
ALLSEL,ALL
K,387,0.154017717755676,0.41467849816281677,0
K,388,0.15845621312754346,0.39933617980641045,0
K,389,0.1505570264516166,0.4037608570318311,0
K,390,0.14809606945155482,0.4111090402032482,0
A,387,388,389,390
*GET,LASTA,AREA,0,NUM,MAX
ASEL,S,AREA,,LASTA
AATT,1,1,1
ALLSEL,ALL
K,391,0.18584540206568656,0.28007412064617865,0
K,392,0.19737087088454805,0.28519511843725737,0
K,393,0.19908464093664963,0.2666299365222267,0
K,394,0.19214956144194062,0.26713764824661856,0
A,391,392,393,394
*GET,LASTA,AREA,0,NUM,MAX
ASEL,S,AREA,,LASTA
AATT,1,1,1
ALLSEL,ALL
K,395,0.41166123161126594,0.4630025931878611,0
K,396,0.40815991665385914,0.4692725545966181,0
K,397,0.4156813465961593,0.47742105365046617,0
K,398,0.41597019262936846,0.477512220580026,0
K,399,0.43014470796968846,0.47678095910866625,0
K,400,0.4246475434972434,0.45768375514471377,0
K,401,0.41325106534830686,0.4620818087381515,0
A,395,396,397,398,399,400,401
*GET,LASTA,AREA,0,NUM,MAX
ASEL,S,AREA,,LASTA
AATT,1,1,1
ALLSEL,ALL
K,402,0.3035481921476894,0.16989309438777483,0
K,403,0.29736373736447624,0.17677580292114675,0
K,404,0.30310387571171604,0.18567076302790902,0
K,405,0.31427063865463545,0.18622988141418295,0
K,406,0.31470973305631295,0.1858688340992075,0
K,407,0.3136688899452701,0.1809715525754603,0
A,402,403,404,405,406,407
*GET,LASTA,AREA,0,NUM,MAX
ASEL,S,AREA,,LASTA
AATT,1,1,1
ALLSEL,ALL
K,408,0.1262311886908073,0.27861879357243424,0
K,409,0.12326956051736143,0.26787452343673884,0
K,410,0.11154057978843275,0.2635764839880137,0
K,411,0.10540046503187474,0.2812660931005078,0
K,412,0.11479187516462816,0.28324374884476267,0
K,413,0.12457181402722896,0.2802949022545304,0
A,408,409,410,411,412,413
*GET,LASTA,AREA,0,NUM,MAX
ASEL,S,AREA,,LASTA
AATT,1,1,1
ALLSEL,ALL
K,414,0.25645204612937395,0.28955631984734326,0
K,415,0.2546219995943897,0.2960658596036992,0
K,416,0.25777267684724703,0.30203719817656904,0
K,417,0.2610723947472289,0.3027078128968369,0
K,418,0.2640827628934111,0.301524201383265,0
K,419,0.2748067749297,0.28896838048578155,0
K,420,0.26473514319316704,0.2819623200895199,0
K,421,0.26092563426693177,0.2840218462710425,0
A,414,415,416,417,418,419,420,421
*GET,LASTA,AREA,0,NUM,MAX
ASEL,S,AREA,,LASTA
AATT,1,1,1
ALLSEL,ALL
K,422,0.0503824335459065,0.3095014722075922,0
K,423,0.05214932982531365,0.3199395837557024,0
K,424,0.05657028314164806,0.3213770856938049,0
K,425,0.06283509231388393,0.3172129805134399,0
K,426,0.06047457736553436,0.31054114456775583,0
K,427,0.056171751335958045,0.3065284849835564,0
A,422,423,424,425,426,427
*GET,LASTA,AREA,0,NUM,MAX
ASEL,S,AREA,,LASTA
AATT,1,1,1
ALLSEL,ALL
K,428,0.44986209486040796,0.038625493449998875,0
K,429,0.44989332072196503,0.040219957559414585,0
K,430,0.4507023304502307,0.04033999054262999,0
K,431,0.45488901916791896,0.03911033556393442,0
K,432,0.46920765106444323,0.030681396522359385,0
K,433,0.4683085150166991,0.027073867918865666,0
K,434,0.4637729200349226,0.018782195753680744,0
K,435,0.4554700513997394,0.01998193947341989,0
K,436,0.45046908876201613,0.027902639593148554,0
A,428,429,430,431,432,433,434,435,436
*GET,LASTA,AREA,0,NUM,MAX
ASEL,S,AREA,,LASTA
AATT,1,1,1
ALLSEL,ALL
K,437,0.24784152522596173,0.034687450668600614,0
K,438,0.2608857742434922,0.037212207195601546,0
K,439,0.26185858803316214,0.028979489434688494,0
K,440,0.2610464546010433,0.02803584149832714,0
K,441,0.24663104319530363,0.02800252001777959,0
A,437,438,439,440,441
*GET,LASTA,AREA,0,NUM,MAX
ASEL,S,AREA,,LASTA
AATT,1,1,1
ALLSEL,ALL
K,442,0.3667743102177962,0.05435073123718233,0
K,443,0.3539371496886919,0.05638053476961706,0
K,444,0.3604165613232435,0.06841386672976432,0
K,445,0.36500154622888187,0.07163428872466766,0
K,446,0.3742803686198548,0.06402535040569982,0
K,447,0.3744413503469478,0.0631115421285913,0
A,442,443,444,445,446,447
*GET,LASTA,AREA,0,NUM,MAX
ASEL,S,AREA,,LASTA
AATT,1,1,1
ALLSEL,ALL
K,448,0.06591565641121619,0.3850105864458263,0
K,449,0.05241879268692764,0.3903054313079706,0
K,450,0.05128543434163023,0.39476465559782625,0
K,451,0.06084024639817048,0.399644173600665,0
K,452,0.07099809516257512,0.38779724382248204,0
K,453,0.07099519743493096,0.387316614216013,0
A,448,449,450,451,452,453
*GET,LASTA,AREA,0,NUM,MAX
ASEL,S,AREA,,LASTA
AATT,1,1,1
ALLSEL,ALL
K,454,0.1918532997307295,0.13598524595400552,0
K,455,0.19591173272075682,0.13600621239772245,0
K,456,0.19788551198968857,0.1171607401579749,0
K,457,0.1949646477851801,0.11655886613120986,0
K,458,0.18967924871530736,0.11920313105913191,0
K,459,0.18483122661652424,0.13285413359548762,0
K,460,0.18549169079087213,0.1335909946063092,0
A,454,455,456,457,458,459,460
*GET,LASTA,AREA,0,NUM,MAX
ASEL,S,AREA,,LASTA
AATT,1,1,1
ALLSEL,ALL
K,461,0.1710715860272348,0.17420176429868664,0
K,462,0.17644896992556644,0.18377968442594786,0
K,463,0.18599463090068646,0.18196236527710358,0
K,464,0.18635979108287756,0.16408816080829525,0
K,465,0.18120308543160832,0.16072739322493634,0
K,466,0.17068969217873556,0.17228017823991726,0
A,461,462,463,464,465,466
*GET,LASTA,AREA,0,NUM,MAX
ASEL,S,AREA,,LASTA
AATT,1,1,1
ALLSEL,ALL
K,467,0.08080033382847426,0.34951736183191756,0
K,468,0.07409825392254284,0.3423202470090231,0
K,469,0.06816925906138083,0.3386375544325679,0
K,470,0.05815353705232233,0.3498053544142488,0
K,471,0.057815292632490176,0.3530948969761068,0
K,472,0.07315923692307269,0.3577803032412143,0
K,473,0.0810266527835487,0.35033305510877505,0
A,467,468,469,470,471,472,473
*GET,LASTA,AREA,0,NUM,MAX
ASEL,S,AREA,,LASTA
AATT,1,1,1
ALLSEL,ALL
K,474,0.4061958764998896,0.06377531668105836,0
K,475,0.4044410139345053,0.06251706938131861,0
K,476,0.3947027967622019,0.06681226871868493,0
K,477,0.397263978014126,0.07593122365479527,0
K,478,0.40458632409281414,0.07297898479155035,0
K,479,0.4071636165954526,0.06764872973953288,0
A,474,475,476,477,478,479
*GET,LASTA,AREA,0,NUM,MAX
ASEL,S,AREA,,LASTA
AATT,1,1,1
ALLSEL,ALL
K,480,0.43362025387536923,0.07492289565518946,0
K,481,0.43535468307185404,0.07366756881275774,0
K,482,0.4371415143995105,0.06916426178649479,0
K,483,0.437367143835733,0.0649068918333004,0
K,484,0.4229077073385568,0.05802595109889715,0
K,485,0.42131590927156126,0.05869186274907507,0
K,486,0.4260714377844991,0.06973536886333775,0
K,487,0.43277434953915744,0.0745414296612586,0
A,480,481,482,483,484,485,486,487
*GET,LASTA,AREA,0,NUM,MAX
ASEL,S,AREA,,LASTA
AATT,1,1,1
ALLSEL,ALL
K,488,0.166416427759365,0.11993461230895336,0
K,489,0.16777917211447585,0.10344305723327007,0
K,490,0.16140283514944057,0.10136812199490292,0
K,491,0.15841676693838466,0.10192212612833969,0
K,492,0.15418805340172076,0.11371232044083389,0
K,493,0.15422113959070208,0.11549321126695483,0
K,494,0.15678130145617264,0.11804588345969969,0
A,488,489,490,491,492,493,494
*GET,LASTA,AREA,0,NUM,MAX
ASEL,S,AREA,,LASTA
AATT,1,1,1
ALLSEL,ALL
K,495,0.30214934069898974,0.22310000073743513,0
K,496,0.3038131896027897,0.2169602992035114,0
K,497,0.30360518694809524,0.21674392195049888,0
K,498,0.30296123775510025,0.21655422205954283,0
K,499,0.28965200637757466,0.22189323153679016,0
K,500,0.29412265848502156,0.22685384915858686,0
A,495,496,497,498,499,500
*GET,LASTA,AREA,0,NUM,MAX
ASEL,S,AREA,,LASTA
AATT,1,1,1
ALLSEL,ALL
K,501,0.3411404495445876,0.14634271859425982,0
K,502,0.3421294794551283,0.13613560195545363,0
K,503,0.33471521488994194,0.12455917163523461,0
K,504,0.32920169244206654,0.13889685871475824,0
K,505,0.340779160512892,0.1465960149261861,0
A,501,502,503,504,505
*GET,LASTA,AREA,0,NUM,MAX
ASEL,S,AREA,,LASTA
AATT,1,1,1
ALLSEL,ALL
K,506,0.12127672648145613,0.05107197207916074,0
K,507,0.1209944087356214,0.04537502658082258,0
K,508,0.11557784467470329,0.038750505358487,0
K,509,0.11098988372649704,0.03694000794872039,0
K,510,0.10704934761844336,0.04175015198206827,0
K,511,0.10440604427640296,0.05660639941993736,0
K,512,0.10878681676915584,0.06705126815619869,0
K,513,0.11230366484306957,0.06642631633131017,0
A,506,507,508,509,510,511,512,513
*GET,LASTA,AREA,0,NUM,MAX
ASEL,S,AREA,,LASTA
AATT,1,1,1
ALLSEL,ALL
K,514,0.3042935944166679,0.41447054391788646,0
K,515,0.3131011891031959,0.412341657765815,0
K,516,0.3085575362991588,0.4022209555207001,0
K,517,0.2977696327683776,0.40166527607756614,0
K,518,0.29726176430943163,0.4036583969615687,0
A,514,515,516,517,518
*GET,LASTA,AREA,0,NUM,MAX
ASEL,S,AREA,,LASTA
AATT,1,1,1
ALLSEL,ALL
K,519,0.04317132376011509,0.3381432321226603,0
K,520,0.04297031171586615,0.3369221425258148,0
K,521,0.030069495131105187,0.33597141497552396,0
K,522,0.025583928335672624,0.3435106926078808,0
K,523,0.031536087100990214,0.35039715185627524,0
K,524,0.04215560250052595,0.34023823502408573,0
A,519,520,521,522,523,524
*GET,LASTA,AREA,0,NUM,MAX
ASEL,S,AREA,,LASTA
AATT,1,1,1
ALLSEL,ALL
K,525,0.24527034846132723,0.014662407988759181,0
K,526,0.2432367982528028,0.013054686175283348,0
K,527,0.23096764085935245,0.013026615284746496,0
K,528,0.22753595593036918,0.017249442086339228,0
K,529,0.23152486980434622,0.031595392046938606,0
K,530,0.23232809338759744,0.03219792672510106,0
K,531,0.2431845478702771,0.025641660839116003,0
A,525,526,527,528,529,530,531
*GET,LASTA,AREA,0,NUM,MAX
ASEL,S,AREA,,LASTA
AATT,1,1,1
ALLSEL,ALL
K,532,0.006713014775809007,0.12199057783039181,0
K,533,0.012061081949341657,0.10982679454580747,0
K,534,0.004821785615532637,0.10699912833266266,0
K,535,0.0,0.10735476946982041,0
K,536,0.0,0.12356159094499022,0
A,532,533,534,535,536
*GET,LASTA,AREA,0,NUM,MAX
ASEL,S,AREA,,LASTA
AATT,1,1,1
ALLSEL,ALL
K,537,0.2624997773351023,0.1844003944295345,0
K,538,0.26443224840631385,0.18272195651640505,0
K,539,0.27058439822779523,0.1742504790042785,0
K,540,0.26975509668588993,0.166335182953682,0
K,541,0.2578681919767386,0.16233257097354947,0
K,542,0.2565167799034304,0.16331676919743818,0
K,543,0.252228060312361,0.17038045124421558,0
K,544,0.2516248704292305,0.17740593480865027,0
A,537,538,539,540,541,542,543,544
*GET,LASTA,AREA,0,NUM,MAX
ASEL,S,AREA,,LASTA
AATT,1,1,1
ALLSEL,ALL
K,545,0.24478371137517188,0.408240253670616,0
K,546,0.23565036125043134,0.39929054021994675,0
K,547,0.23118870068727695,0.4083754723385741,0
K,548,0.242346028347731,0.4095457724985076,0
K,549,0.24470825998870435,0.4083426075525588,0
A,545,546,547,548,549
*GET,LASTA,AREA,0,NUM,MAX
ASEL,S,AREA,,LASTA
AATT,1,1,1
ALLSEL,ALL
K,550,0.3346664662346049,0.11845985121177982,0
K,551,0.3350336398189466,0.12188708929385964,0
K,552,0.34990691937097196,0.1292996572092885,0
K,553,0.3585669425541251,0.1278163953172158,0
K,554,0.3499941299266252,0.11368106051114377,0
K,555,0.3415925306977929,0.11241177308368218,0
A,550,551,552,553,554,555
*GET,LASTA,AREA,0,NUM,MAX
ASEL,S,AREA,,LASTA
AATT,1,1,1
ALLSEL,ALL
K,556,0.4628444716138017,0.45153212250168534,0
K,557,0.46535887242952834,0.45457265662193436,0
K,558,0.47447259919642876,0.4538077208955859,0
K,559,0.4774982720356901,0.44763926785364233,0
K,560,0.47533985345738916,0.445788555507537,0
A,556,557,558,559,560
*GET,LASTA,AREA,0,NUM,MAX
ASEL,S,AREA,,LASTA
AATT,1,1,1
ALLSEL,ALL
K,561,0.3915325486374482,0.47590795272578,0
K,562,0.3953911911420346,0.4836884533513373,0
K,563,0.407823600389389,0.4693199447212445,0
K,564,0.3973097893772155,0.46457455074795506,0
A,561,562,563,564
*GET,LASTA,AREA,0,NUM,MAX
ASEL,S,AREA,,LASTA
AATT,1,1,1
ALLSEL,ALL
K,565,0.09468307578443375,0.36079131656304597,0
K,566,0.08790707802302095,0.36288639529941275,0
K,567,0.08611935742123725,0.3682461771375011,0
K,568,0.08650162691927178,0.37334557869393975,0
K,569,0.10089391040752824,0.372641435138626,0
A,565,566,567,568,569
*GET,LASTA,AREA,0,NUM,MAX
ASEL,S,AREA,,LASTA
AATT,1,1,1
ALLSEL,ALL
K,570,0.20546994981319006,0.3597129745365633,0
K,571,0.20584486377363456,0.35995146671904316,0
K,572,0.21850747618007316,0.3477065928569629,0
K,573,0.21535856100017384,0.3407094973574699,0
K,574,0.19635670499457922,0.34570207760674065,0
A,570,571,572,573,574
*GET,LASTA,AREA,0,NUM,MAX
ASEL,S,AREA,,LASTA
AATT,1,1,1
ALLSEL,ALL
K,575,0.19233551070530416,0.42565530897368753,0
K,576,0.1960885176545316,0.4318424647660786,0
K,577,0.2017204168851266,0.4296682059888255,0
K,578,0.2046393541686684,0.4188518907602423,0
K,579,0.20420461431338285,0.41851460225530773,0
K,580,0.1940409742599608,0.42034079673662644,0
A,575,576,577,578,579,580
*GET,LASTA,AREA,0,NUM,MAX
ASEL,S,AREA,,LASTA
AATT,1,1,1
ALLSEL,ALL
K,581,0.06231196701954784,0.40181883867719076,0
K,582,0.06168783539667468,0.4162352338053968,0
K,583,0.07670204310442598,0.40730882939770896,0
K,584,0.07693246223887205,0.40226877095819025,0
A,581,582,583,584
*GET,LASTA,AREA,0,NUM,MAX
ASEL,S,AREA,,LASTA
AATT,1,1,1
ALLSEL,ALL
K,585,0.0051611695969207266,0.4732496068123218,0
K,586,0.014988559305598179,0.4748206282036694,0
K,587,0.01917025046654304,0.4614335276763579,0
K,588,0.008732430568315484,0.4615238140184994,0
K,589,0.0,0.46592124666957524,0
K,590,0.0,0.4689184963399561,0
A,585,586,587,588,589,590
*GET,LASTA,AREA,0,NUM,MAX
ASEL,S,AREA,,LASTA
AATT,1,1,1
ALLSEL,ALL
K,591,0.43957478575899833,0.09382821210648848,0
K,592,0.44380848162365427,0.09845597953237561,0
K,593,0.4464632256651891,0.09869195851925303,0
K,594,0.45792206337525465,0.08377823265522612,0
K,595,0.45674386145027823,0.08283873923974716,0
K,596,0.45098840843942206,0.08268462960196292,0
K,597,0.44074834741884267,0.09081447571877428,0
A,591,592,593,594,595,596,597
*GET,LASTA,AREA,0,NUM,MAX
ASEL,S,AREA,,LASTA
AATT,1,1,1
ALLSEL,ALL
K,598,0.027379808893053116,0.11314956448550821,0
K,599,0.01711209321057125,0.10737378871363507,0
K,600,0.014510539165627785,0.10926415144791755,0
K,601,0.02003484185336947,0.12287120475118576,0
K,602,0.02791302878407048,0.1256136926642666,0
A,598,599,600,601,602
*GET,LASTA,AREA,0,NUM,MAX
ASEL,S,AREA,,LASTA
AATT,1,1,1
ALLSEL,ALL
K,603,0.0875994459312471,0.38367516857035877,0
K,604,0.08018890072003462,0.398887790888974,0
K,605,0.08022512686520589,0.399193583874089,0
K,606,0.09812304163640728,0.40605129522967637,0
K,607,0.10140316968895023,0.3986685767225581,0
K,608,0.09752754656518674,0.3886530865129575,0
A,603,604,605,606,607,608
*GET,LASTA,AREA,0,NUM,MAX
ASEL,S,AREA,,LASTA
AATT,1,1,1
ALLSEL,ALL
K,609,0.3302711251141568,0.2626489730903572,0
K,610,0.3398748599200256,0.2536636426182123,0
K,611,0.34120399731623463,0.24796323178733293,0
K,612,0.32700964058984117,0.24488027371224,0
K,613,0.32337856134670384,0.2495297790656228,0
K,614,0.3261783489315731,0.2607619765267169,0
K,615,0.3287108077579682,0.2624611625430579,0
A,609,610,611,612,613,614,615
*GET,LASTA,AREA,0,NUM,MAX
ASEL,S,AREA,,LASTA
AATT,1,1,1
ALLSEL,ALL
K,616,0.024622212602840334,0.4189402819184727,0
K,617,0.028803486153649284,0.4140374198473295,0
K,618,0.019957222465301155,0.4010940663732369,0
K,619,0.017578379643442926,0.4008812748458962,0
K,620,0.0,0.4079817805865381,0
K,621,0.0,0.40889472699428375,0
A,616,617,618,619,620,621
*GET,LASTA,AREA,0,NUM,MAX
ASEL,S,AREA,,LASTA
AATT,1,1,1
ALLSEL,ALL
K,622,0.024622212602840334,0.4189402819184727,0
K,623,0.02192607731136546,0.42933583827243893,0
K,624,0.03892327165209177,0.43605984456746694,0
K,625,0.04757181937675348,0.42252559926180505,0
K,626,0.04149307774758652,0.41394830519245224,0
K,627,0.028803486153649284,0.4140374198473295,0
A,622,623,624,625,626,627
*GET,LASTA,AREA,0,NUM,MAX
ASEL,S,AREA,,LASTA
AATT,1,1,1
ALLSEL,ALL
K,628,0.1903301978472277,0.09456425988699628,0
K,629,0.18217320417991234,0.09292756152643306,0
K,630,0.17336142810060046,0.10348995610266373,0
K,631,0.17780916547913572,0.11294263372204627,0
K,632,0.18201779627579853,0.11030220985033085,0
K,633,0.19036697508471614,0.09565814384627921,0
K,634,0.19041170838295232,0.095178399483452,0
A,628,629,630,631,632,633,634
*GET,LASTA,AREA,0,NUM,MAX
ASEL,S,AREA,,LASTA
AATT,1,1,1
ALLSEL,ALL
K,635,0.4384642127917122,0.43770525958804496,0
K,636,0.4418643941787635,0.4495496740874304,0
K,637,0.4584083782014141,0.4386403777701003,0
K,638,0.46022838635798174,0.43580216746542616,0
K,639,0.44375366833553964,0.42712863955412883,0
A,635,636,637,638,639
*GET,LASTA,AREA,0,NUM,MAX
ASEL,S,AREA,,LASTA
AATT,1,1,1
ALLSEL,ALL
K,640,0.3678124648796311,0.40747234781701364,0
K,641,0.3822732993833684,0.39836316913826864,0
K,642,0.38336412023806365,0.39689291869895355,0
K,643,0.38427080379575246,0.3923081090671144,0
K,644,0.3790155349888034,0.3846301763358895,0
K,645,0.3757685989967132,0.38546537148362375,0
K,646,0.36466455558855143,0.4060544728058586,0
A,640,641,642,643,644,645,646
*GET,LASTA,AREA,0,NUM,MAX
ASEL,S,AREA,,LASTA
AATT,1,1,1
ALLSEL,ALL
