/PREP7
! --- RVE Voronoi generado desde Python ---

MP,EX,1,210000
MP,PRXY,1,0.3
TB,GURSON,1
TBDATA,1,1.5,1.0,2.25

MP,EX,2,230000
MP,PRXY,2,0.28
TB,GURSON,2
TBDATA,1,1.8,1.0,3.24

K,1,0.0,0.07364060746575114,0
K,2,0.0,0.08515161686085976,0
K,3,0.008048934809600939,0.09073285353310279,0
K,4,0.005806230074787898,0.0974843174622522,0
K,5,0.003617308492483649,0.09874520355791092,0
K,6,0.006406812065282494,0.10800646889484908,0
K,7,0.0,0.11190436636442348,0
K,8,0.0,0.12135377058355301,0
K,9,0.0,0.1378082096617107,0
K,10,0.0,0.16534331300152924,0
K,11,0.005215651410174292,0.16723239369389709,0
K,12,0.014485996159065543,0.18508735479615546,0
K,13,0.014292625917577774,0.1854020189940293,0
K,14,0.011065512982654385,0.18765634193808353,0
K,15,0.0,0.18798912489730715,0
K,16,0.0,0.20501547530822395,0
K,17,0.0,0.2244083406504579,0
K,18,0.0,0.23774300059606832,0
K,19,0.0,0.25278113271822833,0
K,20,0.0,0.25741518623443366,0
! ... 153 like lines cut
A,1,2,3,4,5,6,7,8,9,10,11,12,13,14,15,16,17,18,19,20,21,22,23,24,25,26,27,28,29,30,31,32,33,34,35,36,37,38,39,40,41,42,43,44,45,46,47,48,49,50,51,52,53,54,55,56,57,58,59,60,61,62,63,64,65,66,67,68,69,70,71,72,73,74,75,76,77,78,79,80,81,82,83,84,85,86,87,88,89,90,91,92,93,94,95,96,97,98,99,100,101,102,103,104,105,106,107,108,109,110,111,112,113,114,115,116,117,118,119,120,121,122,123,124,125,126,12
*GET,LASTA,AREA,0,NUM,MAX
ASEL,S,AREA,,LASTA
AATT,1,1,1
ALLSEL,ALL

!Ajuste tolerancia geometrica
BTOL,1E-4
NUMMRG,KP
NUMMRG,LINE
NUMCMP,ALL
! Tipo de elemento
ET,1,PLANE182
KEYOPT,1,3,3

! Tamaño de elemento
ESIZE,0.0025

! Mallado
ALLSEL,ALL
TYPE,1
AMESH,ALL

FINISH
